MastesRls/DataRaw/IEEE9.raw
0,   100.00
IEEE Test System, 9 Buses, 3 Generators          / PSS/E-30.0    
Created by College of Electrical Engineering, Zhejiang University, Mon 27 Jun 2011 14:39:13
    1,    ' Bus-1  ',    1.0000,    3,    0,    0,    1,    1,    1.040,         0,    1
    2,    ' Bus-2  ',    1.0000,    2,    0,    0,    1,    1,    1.025,    9.2800,    1
    3,    ' Bus-3  ',    1.0000,    2,    0,    0,    1,    1,    1.025,    4.6647,    1
    4,    ' Bus-4  ',    1.0000,    1,    0,    0,    1,    1,    1.025,   -2.2160,    1
    5,    ' Bus-5  ',    1.0000,    1,    0,    0,    1,    1,    0.995,   -3.9880,    1
    6,    ' Bus-6  ',    1.0000,    1,    0,    0,    1,    1,    1.012,   -3.6870,    1
    7,    ' Bus-7  ',    1.0000,    1,    0,    0,    1,    1,    1.025,    3.7197,    1
    8,    ' Bus-8  ',    1.0000,    1,    0,    0,    1,    1,    1.015,    0.7275,    1
    9,    ' Bus-9  ',    1.0000,    1,    0,    0,    1,    1,    1.032,    1.9667,    1
0 / END OF BUS DATA, BEGIN LOAD DATA
    5,    '1',    1,    1,    1,    125,    50,    0,    0,    0,    0,    1
    6,    '1',    1,    1,    1,     90,    30,    0,    0,    0,    0,    1
    8,    '1',    1,    1,    1,    100,    35,    0,    0,    0,    0,    1
0 / END OF LOAD DATA, BEGIN GENERATOR DATA
    1,    '1',     71.64,     0.04592,    999900,   -99990,   1.040,    0,    100,    0,    1,    0,    0,    1,    1,    100,    9999,    -9999,    1,    1
    2,    '1',    163.00,     6.65366,    999900,   -99990,   1.025,    0,    100,    0,    1,    0,    0,    1,    1,    100,    9999,    -9999,    1,    1
    3,    '1',     85.00,   -10.85970,    999900,   -99990,   1.025,    0,    100,    0,    1,    0,    0,    1,    1,    100,    9999,    -9999,    1,    1
0 / END OF GENERATOR DATA, BEGIN BRANCH DATA
    7,    8,   '1',    0.0085,    0.0720,    0.149,    0,    0,    0,    0,    0,    0,    0,    1,    0,    1,    1
    9,    8,   '1',    0.0119,    0.1008,    0.209,    0,    0,    0,    0,    0,    0,    0,    1,    0,    1,    1
    7,    5,   '1',    0.0320,    0.1610,    0.306,    0,    0,    0,    0,    0,    0,    0,    1,    0,    1,    1
    9,    6,   '1',    0.0390,    0.1700,    0.358,    0,    0,    0,    0,    0,    0,    0,    1,    0,    1,    1
    5,    4,   '1',    0.0100,    0.0850,    0.176,    0,    0,    0,    0,    0,    0,    0,    1,    0,    1,    1
    6,    4,   '1',    0.0170,    0.0920,    0.158,    0,    0,    0,    0,    0,    0,    0,    1,    0,    1,    1
0 / END OF BRANCH DATA, BEGIN TRANSFORMER DATA
4,    1,    0,'1',1,1,1,    0,    0,    2,    '        ',1,    1,    1
    0,    0.0576,    100
    1,    0,          0,    0,    0,    0,    0,    0,    1.1,    0.9,    1.1,    0.9,    33,    0,    0,    0
    1,    0
7,    2,    0,'1',1,1,1,    0,    0,    2,    '        ',1,    1,    1
    0,    0.0625,    100
    1,    0,          0,    0,    0,    0,    0,    0,    1.1,    0.9,    1.1,    0.9,    33,    0,    0,    0
    1,    0
9,    3,    0,'1',1,1,1,    0,    0,    2,    '        ',1,    1,    1
    0,    0.0586,    100
    1,    0,          0,    0,    0,    0,    0,    0,    1.1,    0.9,    1.1,    0.9,    33,    0,    0,    0
    1,    0
0 / END OF TRANSFORMER DATA, BEGIN AREA DATA
0 / END OF TRANSFORMER DATA, BEGIN AREA DATA
0 / END OF AREA DATA, BEGIN TWO-TERMINAL DC DATA
0 / END OF TWO-TERMINAL DC DATA, BEGIN VSC DC LINE DATA
0 / END OF VSC DC LINE DATA, BEGIN SWITCHED SHUNT DATA
0 / END OF SWITCHED SHUNT DATA, BEGIN IMPEDANCE CORRECTION DATA
0 / END OF IMPEDANCE CORRECTION DATA, BEGIN MULTI-TERMINAL DC DATA
0 / END OF MULTI-TERMINAL DC DATA, BEGIN MULTI-SECTION LINE DATA
0 / END OF MULTI-SECTION LINE DATA, BEGIN ZONE DATA
0 / END OF ZONE DATA, BEGIN INTER-AREA TRANSFER DATA
0 / END OF INTER-AREA TRANSFER DATA, BEGIN OWNER DATA
0 / END OF OWNER DATA, BEGIN FACTS DEVICE DATA
0 / END OF FACTS DEVICE DATA
